Circuit: * E:\TheLamp\circuit\Timer555.asc

Limiting rise time of source v2 to 1e-006
Limiting fall time of source v2 to 1e-006
Direct Newton iteration for .op point succeeded.
.step vcc=4
.step vcc=16

Date: Tue Dec 19 18:57:46 2017
Total elapsed time: 0.065 seconds.

tnom = 27
temp = 27
method = modified trap
totiter = 5898
traniter = 5890
tranpoints = 2144
accept = 1925
rejected = 219
matrix size = 15
fillins = 0
solver = Normal
Matrix Compiler1: 416 bytes object code size  0.1/0.1/[0.0]
Matrix Compiler2: 783 bytes object code size  0.1/0.1/[0.1]

